dynawo/sources/Modeler/DataInterface/PowSyblIIDM/test/resources/generator_with_ext.xiidm
<?xml version="1.0" encoding="UTF-8"?>
<iidm:network xmlns:iidm="http://www.powsybl.org/schema/iidm/1_5" id="test" caseDate="2022-01-01T00:00:00.000+01:00" forecastDistance="0" sourceFormat="test">
    <iidm:substation id="S1" country="FR" tso="TSO">
        <iidm:voltageLevel id="VL1" nominalV="382.0" lowVoltageLimit="340.0" highVoltageLimit="420.0" topologyKind="BUS_BREAKER">
            <iidm:busBreakerTopology>
                <iidm:bus id="VL1_BUS1"/>
            </iidm:busBreakerTopology>
            <iidm:generator id="GEN1" energySource="WIND" minP="3.0" maxP="50.0"
                voltageRegulatorOn="true" targetP="45.0" targetQ="5.0" targetV="24.0"
                bus="VL1_BUS1" connectableBus="VL1_BUS1"/>
        </iidm:voltageLevel>
    </iidm:substation>
    <iidm:extension id="GEN1">
        <apc:activePowerControl xmlns:apc="http://www.powsybl.org/schema/iidm/ext/active_power_control/1_0"
            participate="true" droop="4.0"/>
        <crc:coordinatedReactiveControl xmlns:crc="http://www.powsybl.org/schema/iidm/ext/coordinated_reactive_control/1_0"
            qPercent="50.0"/>
    </iidm:extension>
</iidm:network>
